valve

.control
pre_osdi valve.osdi
.endc

.model valve_model relay thresh=0
.subckt valve in out ctrl params: thresh
N1 cin cout ctrl gnd valve_model thresh=thresh
.ends
